8
CBD
 C                  0.76997455    0.67762891   -0.00000000
 C                 -0.77002544    0.67757109    0.00000000
 C                 -0.76997455   -0.67762891    0.00000000
 C                  0.77002544   -0.67757109   -0.00000000
 H                  1.52655038    1.43426158   -0.00000000
 H                  1.52665810   -1.43414693   -0.00000000
 H                 -1.52655039   -1.43426158    0.00000000
 H                 -1.52665810    1.43414693    0.00000000
